   60
jmolscript: load "" {1 1 1} spacegroup "x,y,z" unitcell [{      8.674000     0.000000     0.000000 }, {     -0.000000     8.674000     0.000000 }, {      0.000000     0.000000    13.919000 }]
Si      2.197992     3.736759     1.550577    14.170059
Si      4.937241     2.197992     1.550577    14.170067
Si      6.476008     4.937241     1.550577    14.170068
Si      3.736759     6.476008     1.550577    14.170075
Si      6.476008     3.736759     8.510077    14.170059
Si      3.736759     2.197992     8.510077    14.170067
Si      2.197992     4.937241     8.510077    14.170068
Si      4.937241     6.476008     8.510077    14.170075
Si      6.476008     4.937241    12.368423    14.170078
Si      3.736759     6.476008    12.368423    14.170085
Si      2.197992     3.736759    12.368423    14.170087
Si      4.937241     2.197992    12.368423    14.170093
Si      2.197992     4.937241     5.408923    14.170078
Si      4.937241     6.476008     5.408923    14.170085
Si      6.476008     3.736759     5.408923    14.170087
Si      3.736759     2.197992     5.408923    14.170093
Si      0.000000     4.337000     3.479750    14.229471
Si      4.337000     0.000000     3.479750    14.229463
Si      0.000000     4.337000    10.439250    14.229471
Si      4.337000     0.000000    10.439250    14.229463
O       0.944599     5.268588     4.423458    14.341455
O       3.405412     0.944599     4.423458    14.341454
O       7.729401     3.405412     4.423458    14.341454
O       5.268588     7.729401     4.423458    14.341455
O       7.729401     5.268588    11.382958    14.341455
O       5.268588     0.944599    11.382958    14.341454
O       0.944599     3.405412    11.382958    14.341454
O       3.405412     7.729401    11.382958    14.341455
O       7.729401     3.405412     9.495542    14.341458
O       5.268588     7.729401     9.495542    14.341457
O       0.944599     5.268588     9.495542    14.341457
O       3.405412     0.944599     9.495542    14.341458
O       0.944599     3.405412     2.536042    14.341458
O       3.405412     7.729401     2.536042    14.341457
O       7.729401     5.268588     2.536042    14.341457
O       5.268588     0.944599     2.536042    14.341458
O       1.721789     3.604047     0.000000    14.683786
O       5.069953     1.721789     0.000000    14.683783
O       6.952211     5.069953     0.000000    14.683786
O       3.604047     6.952211     0.000000    14.683783
O       6.952211     3.604047     6.959500    14.683786
O       3.604047     1.721789     6.959500    14.683783
O       1.721789     5.069953     6.959500    14.683786
O       5.069953     6.952211     6.959500    14.683783
O       3.415821     2.697614     1.838700    15.046279
O       5.976386     3.415821     1.838700    15.046277
O       5.258179     5.976386     1.838700    15.046275
O       2.697614     5.258179     1.838700    15.046277
O       5.258179     2.697614     8.798200    15.046279
O       2.697614     3.415821     8.798200    15.046277
O       3.415821     5.976386     8.798200    15.046275
O       5.976386     5.258179     8.798200    15.046277
O       5.258179     5.976386    12.080300    15.046272
O       2.697614     5.258179    12.080300    15.046270
O       3.415821     2.697614    12.080300    15.046269
O       5.976386     3.415821    12.080300    15.046270
O       3.415821     5.976386     5.120800    15.046272
O       5.976386     5.258179     5.120800    15.046270
O       5.258179     2.697614     5.120800    15.046269
O       2.697614     3.415821     5.120800    15.046270
  
Same information as above printed with atom number.
   1 Si     2.197992     3.736759     1.550577    14.170059
   2 Si     4.937241     2.197992     1.550577    14.170067
   3 Si     6.476008     4.937241     1.550577    14.170068
   4 Si     3.736759     6.476008     1.550577    14.170075
   5 Si     6.476008     3.736759     8.510077    14.170059
   6 Si     3.736759     2.197992     8.510077    14.170067
   7 Si     2.197992     4.937241     8.510077    14.170068
   8 Si     4.937241     6.476008     8.510077    14.170075
   9 Si     6.476008     4.937241    12.368423    14.170078
  10 Si     3.736759     6.476008    12.368423    14.170085
  11 Si     2.197992     3.736759    12.368423    14.170087
  12 Si     4.937241     2.197992    12.368423    14.170093
  13 Si     2.197992     4.937241     5.408923    14.170078
  14 Si     4.937241     6.476008     5.408923    14.170085
  15 Si     6.476008     3.736759     5.408923    14.170087
  16 Si     3.736759     2.197992     5.408923    14.170093
  17 Si     0.000000     4.337000     3.479750    14.229471
  18 Si     4.337000     0.000000     3.479750    14.229463
  19 Si     0.000000     4.337000    10.439250    14.229471
  20 Si     4.337000     0.000000    10.439250    14.229463
  21 O      0.944599     5.268588     4.423458    14.341455
  22 O      3.405412     0.944599     4.423458    14.341454
  23 O      7.729401     3.405412     4.423458    14.341454
  24 O      5.268588     7.729401     4.423458    14.341455
  25 O      7.729401     5.268588    11.382958    14.341455
  26 O      5.268588     0.944599    11.382958    14.341454
  27 O      0.944599     3.405412    11.382958    14.341454
  28 O      3.405412     7.729401    11.382958    14.341455
  29 O      7.729401     3.405412     9.495542    14.341458
  30 O      5.268588     7.729401     9.495542    14.341457
  31 O      0.944599     5.268588     9.495542    14.341457
  32 O      3.405412     0.944599     9.495542    14.341458
  33 O      0.944599     3.405412     2.536042    14.341458
  34 O      3.405412     7.729401     2.536042    14.341457
  35 O      7.729401     5.268588     2.536042    14.341457
  36 O      5.268588     0.944599     2.536042    14.341458
  37 O      1.721789     3.604047     0.000000    14.683786
  38 O      5.069953     1.721789     0.000000    14.683783
  39 O      6.952211     5.069953     0.000000    14.683786
  40 O      3.604047     6.952211     0.000000    14.683783
  41 O      6.952211     3.604047     6.959500    14.683786
  42 O      3.604047     1.721789     6.959500    14.683783
  43 O      1.721789     5.069953     6.959500    14.683786
  44 O      5.069953     6.952211     6.959500    14.683783
  45 O      3.415821     2.697614     1.838700    15.046279
  46 O      5.976386     3.415821     1.838700    15.046277
  47 O      5.258179     5.976386     1.838700    15.046275
  48 O      2.697614     5.258179     1.838700    15.046277
  49 O      5.258179     2.697614     8.798200    15.046279
  50 O      2.697614     3.415821     8.798200    15.046277
  51 O      3.415821     5.976386     8.798200    15.046275
  52 O      5.976386     5.258179     8.798200    15.046277
  53 O      5.258179     5.976386    12.080300    15.046272
  54 O      2.697614     5.258179    12.080300    15.046270
  55 O      3.415821     2.697614    12.080300    15.046269
  56 O      5.976386     3.415821    12.080300    15.046270
  57 O      3.415821     5.976386     5.120800    15.046272
  58 O      5.976386     5.258179     5.120800    15.046270
  59 O      5.258179     2.697614     5.120800    15.046269
  60 O      2.697614     3.415821     5.120800    15.046270
