   60
jmolscript: load "" {1 1 1} spacegroup "x,y,z" unitcell [{      8.674000     0.000000     0.000000 }, {     -0.000000     8.674000     0.000000 }, {      0.000000     0.000000    13.919000 }]
Si     2.197992     3.736759     1.550577     1.856303
Si     4.937241     2.197992     1.550577     1.856301
Si     6.476008     4.937241     1.550577     1.856301
Si     3.736759     6.476008     1.550577     1.856299
Si     6.476008     3.736759     8.510077     1.856303
Si     3.736759     2.197992     8.510077     1.856301
Si     2.197992     4.937241     8.510077     1.856301
Si     4.937241     6.476008     8.510077     1.856299
Si     6.476008     4.937241    12.368423     1.856299
Si     3.736759     6.476008    12.368423     1.856297
Si     2.197992     3.736759    12.368423     1.856297
Si     4.937241     2.197992    12.368423     1.856295
Si     2.197992     4.937241     5.408923     1.856299
Si     4.937241     6.476008     5.408923     1.856297
Si     6.476008     3.736759     5.408923     1.856297
Si     3.736759     2.197992     5.408923     1.856295
Si     0.000000     4.337000     3.479750     1.829131
Si     4.337000     0.000000     3.479750     1.829133
Si     0.000000     4.337000    10.439250     1.829131
Si     4.337000     0.000000    10.439250     1.829133
O      0.944599     5.268588     4.423458    -0.889237
O      3.405412     0.944599     4.423458    -0.889237
O      7.729401     3.405412     4.423458    -0.889237
O      5.268588     7.729401     4.423458    -0.889237
O      7.729401     5.268588    11.382958    -0.889237
O      5.268588     0.944599    11.382958    -0.889237
O      0.944599     3.405412    11.382958    -0.889237
O      3.405412     7.729401    11.382958    -0.889237
O      7.729401     3.405412     9.495542    -0.889238
O      5.268588     7.729401     9.495542    -0.889238
O      0.944599     5.268588     9.495542    -0.889238
O      3.405412     0.944599     9.495542    -0.889238
O      0.944599     3.405412     2.536042    -0.889238
O      3.405412     7.729401     2.536042    -0.889238
O      7.729401     5.268588     2.536042    -0.889238
O      5.268588     0.944599     2.536042    -0.889238
O      1.721789     3.604047     0.000000    -0.930924
O      5.069953     1.721789     0.000000    -0.930924
O      6.952211     5.069953     0.000000    -0.930924
O      3.604047     6.952211     0.000000    -0.930924
O      6.952211     3.604047     6.959500    -0.930924
O      3.604047     1.721789     6.959500    -0.930924
O      1.721789     5.069953     6.959500    -0.930924
O      5.069953     6.952211     6.959500    -0.930924
O      3.415821     2.697614     1.838700    -0.958883
O      5.976386     3.415821     1.838700    -0.958883
O      5.258179     5.976386     1.838700    -0.958883
O      2.697614     5.258179     1.838700    -0.958883
O      5.258179     2.697614     8.798200    -0.958883
O      2.697614     3.415821     8.798200    -0.958883
O      3.415821     5.976386     8.798200    -0.958883
O      5.976386     5.258179     8.798200    -0.958883
O      5.258179     5.976386    12.080300    -0.958882
O      2.697614     5.258179    12.080300    -0.958882
O      3.415821     2.697614    12.080300    -0.958882
O      5.976386     3.415821    12.080300    -0.958882
O      3.415821     5.976386     5.120800    -0.958882
O      5.976386     5.258179     5.120800    -0.958882
O      5.258179     2.697614     5.120800    -0.958882
O      2.697614     3.415821     5.120800    -0.958882
 
 Chargemol version 3.5 September 26, 2017.
See ddec.sourceforge.net for latest version.
 
Computational parameters:
Number of radial integration shells =    100
Cutoff radius (pm) =    500
Error in the integrated total number of electrons before renormalization (e) =    4.9284E-06
Charge convergence tolerance =    1.0000E-05
Minimum radius for electron cloud penetration fitting (pm) =    200
Minimum decay exponent for electron density of buried atom tails =   1.7500
Maximum decay exponent for electron density of buried atom tails =  2.5000
Number of iterations to convergence =      7
 
The following XYZ coordinates are in angstroms. The atomic dipoles and quadrupoles are in atomic units.
atom number, atomic symbol, x, y, z, net_charge, dipole_x, dipole_y, dipole_z, dipole_mag, Qxy, Qxz, Qyz,Q(x^2-y^2), Q(3z^2 - R^2), three eigenvalues of traceless quadrupole moment tensor
    1 Si     2.197992     3.736759     1.550577     1.856303    -0.043123    -0.046033     0.024955     0.067834     0.018588     0.065165    -0.006900    -0.115862    -0.089919    -0.103867     0.027891     0.075977
    2 Si     4.937241     2.197992     1.550577     1.856301     0.046033    -0.043123     0.024956     0.067834    -0.018588     0.006900     0.065165     0.115862    -0.089920    -0.103867     0.027891     0.075977
    3 Si     6.476008     4.937241     1.550577     1.856301     0.043123     0.046033     0.024955     0.067834     0.018588    -0.065165     0.006900    -0.115862    -0.089920    -0.103867     0.027891     0.075977
    4 Si     3.736759     6.476008     1.550577     1.856299    -0.046033     0.043123     0.024956     0.067834    -0.018588    -0.006900    -0.065165     0.115862    -0.089920    -0.103867     0.027891     0.075977
    5 Si     6.476008     3.736759     8.510077     1.856303     0.043123    -0.046033     0.024955     0.067834    -0.018588    -0.065165    -0.006900    -0.115862    -0.089919    -0.103867     0.027891     0.075977
    6 Si     3.736759     2.197992     8.510077     1.856301    -0.046033    -0.043123     0.024956     0.067834     0.018588    -0.006900     0.065165     0.115862    -0.089920    -0.103867     0.027891     0.075977
    7 Si     2.197992     4.937241     8.510077     1.856301    -0.043123     0.046033     0.024955     0.067834    -0.018588     0.065165     0.006900    -0.115862    -0.089920    -0.103867     0.027891     0.075977
    8 Si     4.937241     6.476008     8.510077     1.856299     0.046033     0.043123     0.024956     0.067834     0.018588     0.006900    -0.065165     0.115862    -0.089920    -0.103867     0.027891     0.075977
    9 Si     6.476008     4.937241    12.368423     1.856299     0.043123     0.046033    -0.024955     0.067834     0.018588     0.065165    -0.006900    -0.115862    -0.089920    -0.103867     0.027891     0.075977
   10 Si     3.736759     6.476008    12.368423     1.856297    -0.046033     0.043123    -0.024955     0.067834    -0.018588     0.006900     0.065165     0.115862    -0.089920    -0.103868     0.027891     0.075977
   11 Si     2.197992     3.736759    12.368423     1.856297    -0.043123    -0.046033    -0.024955     0.067834     0.018588    -0.065165     0.006900    -0.115862    -0.089920    -0.103868     0.027891     0.075977
   12 Si     4.937241     2.197992    12.368423     1.856295     0.046034    -0.043123    -0.024955     0.067834    -0.018588    -0.006900    -0.065165     0.115862    -0.089920    -0.103868     0.027891     0.075977
   13 Si     2.197992     4.937241     5.408923     1.856299    -0.043123     0.046033    -0.024955     0.067834    -0.018588    -0.065165    -0.006900    -0.115862    -0.089920    -0.103867     0.027891     0.075977
   14 Si     4.937241     6.476008     5.408923     1.856297     0.046033     0.043123    -0.024955     0.067834     0.018588    -0.006900     0.065165     0.115862    -0.089920    -0.103868     0.027891     0.075977
   15 Si     6.476008     3.736759     5.408923     1.856297     0.043123    -0.046033    -0.024955     0.067834    -0.018588     0.065165     0.006900    -0.115862    -0.089920    -0.103868     0.027891     0.075977
   16 Si     3.736759     2.197992     5.408923     1.856295    -0.046034    -0.043123    -0.024955     0.067834     0.018588     0.006900    -0.065165     0.115862    -0.089920    -0.103868     0.027891     0.075977
   17 Si     0.000000     4.337000     3.479750     1.829131    -0.000000    -0.000000    -0.000000     0.000000    -0.000000     0.000000     0.000000    -0.243238    -0.205717    -0.087333    -0.068572     0.155905
   18 Si     4.337000     0.000000     3.479750     1.829133     0.000000     0.000000    -0.000000     0.000000     0.000000    -0.000000     0.000000     0.243238    -0.205717    -0.087333    -0.068572     0.155905
   19 Si     0.000000     4.337000    10.439250     1.829131     0.000000    -0.000000    -0.000000     0.000000     0.000000    -0.000000     0.000000    -0.243238    -0.205717    -0.087333    -0.068572     0.155905
   20 Si     4.337000     0.000000    10.439250     1.829133    -0.000000     0.000000    -0.000000     0.000000    -0.000000     0.000000     0.000000     0.243238    -0.205717    -0.087333    -0.068572     0.155905
   21 O      0.944599     5.268588     4.423458    -0.889237    -0.030663     0.161401    -0.008182     0.164491    -0.010783    -0.016381    -0.013965    -0.049973    -0.016835    -0.036548     0.003248     0.033299
   22 O      3.405412     0.944599     4.423458    -0.889237    -0.161400    -0.030662    -0.008182     0.164491     0.010783     0.013965    -0.016381     0.049973    -0.016835    -0.036548     0.003248     0.033299
   23 O      7.729401     3.405412     4.423458    -0.889237     0.030663    -0.161400    -0.008182     0.164491    -0.010783     0.016381     0.013965    -0.049973    -0.016835    -0.036548     0.003248     0.033299
   24 O      5.268588     7.729401     4.423458    -0.889237     0.161401     0.030663    -0.008182     0.164491     0.010783    -0.013965     0.016381     0.049973    -0.016836    -0.036548     0.003248     0.033299
   25 O      7.729401     5.268588    11.382958    -0.889237     0.030663     0.161401    -0.008182     0.164491     0.010783     0.016381    -0.013965    -0.049973    -0.016835    -0.036548     0.003248     0.033299
   26 O      5.268588     0.944599    11.382958    -0.889237     0.161400    -0.030662    -0.008182     0.164491    -0.010783    -0.013965    -0.016381     0.049973    -0.016835    -0.036548     0.003248     0.033299
   27 O      0.944599     3.405412    11.382958    -0.889237    -0.030663    -0.161400    -0.008182     0.164491     0.010783    -0.016381     0.013965    -0.049973    -0.016835    -0.036548     0.003248     0.033299
   28 O      3.405412     7.729401    11.382958    -0.889237    -0.161401     0.030663    -0.008182     0.164491    -0.010783     0.013965     0.016381     0.049973    -0.016836    -0.036548     0.003248     0.033299
   29 O      7.729401     3.405412     9.495542    -0.889238     0.030663    -0.161401     0.008182     0.164491    -0.010783    -0.016381    -0.013965    -0.049973    -0.016836    -0.036548     0.003248     0.033299
   30 O      5.268588     7.729401     9.495542    -0.889238     0.161401     0.030663     0.008182     0.164491     0.010783     0.013965    -0.016381     0.049973    -0.016836    -0.036548     0.003248     0.033299
   31 O      0.944599     5.268588     9.495542    -0.889238    -0.030663     0.161401     0.008182     0.164491    -0.010783     0.016381     0.013965    -0.049973    -0.016836    -0.036548     0.003248     0.033299
   32 O      3.405412     0.944599     9.495542    -0.889238    -0.161401    -0.030663     0.008182     0.164491     0.010783    -0.013965     0.016381     0.049973    -0.016836    -0.036548     0.003248     0.033299
   33 O      0.944599     3.405412     2.536042    -0.889238    -0.030663    -0.161401     0.008182     0.164491     0.010783     0.016381    -0.013965    -0.049973    -0.016836    -0.036548     0.003248     0.033299
   34 O      3.405412     7.729401     2.536042    -0.889238    -0.161401     0.030663     0.008182     0.164491    -0.010783    -0.013965    -0.016381     0.049973    -0.016836    -0.036548     0.003248     0.033299
   35 O      7.729401     5.268588     2.536042    -0.889238     0.030663     0.161401     0.008182     0.164491     0.010783    -0.016381     0.013965    -0.049973    -0.016836    -0.036548     0.003248     0.033299
   36 O      5.268588     0.944599     2.536042    -0.889238     0.161401    -0.030663     0.008182     0.164491    -0.010783     0.013965     0.016381     0.049973    -0.016836    -0.036548     0.003248     0.033299
   37 O      1.721789     3.604047     0.000000    -0.930924    -0.133525    -0.044009    -0.000000     0.140590    -0.001916     0.000000     0.000000    -0.061145    -0.166157    -0.055386    -0.002940     0.058325
   38 O      5.069953     1.721789     0.000000    -0.930924     0.044009    -0.133525    -0.000000     0.140590     0.001916    -0.000000     0.000000     0.061145    -0.166157    -0.055386    -0.002940     0.058325
   39 O      6.952211     5.069953     0.000000    -0.930924     0.133525     0.044009    -0.000000     0.140590    -0.001916    -0.000000    -0.000000    -0.061145    -0.166157    -0.055386    -0.002940     0.058325
   40 O      3.604047     6.952211     0.000000    -0.930924    -0.044009     0.133525    -0.000000     0.140590     0.001916    -0.000000    -0.000000     0.061145    -0.166157    -0.055386    -0.002940     0.058325
   41 O      6.952211     3.604047     6.959500    -0.930924     0.133525    -0.044009    -0.000000     0.140590     0.001916    -0.000000     0.000000    -0.061145    -0.166157    -0.055386    -0.002940     0.058325
   42 O      3.604047     1.721789     6.959500    -0.930924    -0.044009    -0.133525    -0.000000     0.140590    -0.001916     0.000000     0.000000     0.061145    -0.166157    -0.055386    -0.002940     0.058325
   43 O      1.721789     5.069953     6.959500    -0.930924    -0.133525     0.044009    -0.000000     0.140590     0.001916     0.000000    -0.000000    -0.061145    -0.166157    -0.055386    -0.002940     0.058325
   44 O      5.069953     6.952211     6.959500    -0.930924     0.044009     0.133525    -0.000000     0.140590    -0.001916     0.000000    -0.000000     0.061145    -0.166157    -0.055386    -0.002940     0.058325
   45 O      3.415821     2.697614     1.838700    -0.958883    -0.057727    -0.072099     0.076706     0.120060     0.057435     0.007084     0.031337    -0.014990     0.034753    -0.066993     0.000003     0.066989
   46 O      5.976386     3.415821     1.838700    -0.958883     0.072099    -0.057727     0.076706     0.120060    -0.057435    -0.031337     0.007084     0.014990     0.034753    -0.066993     0.000003     0.066989
   47 O      5.258179     5.976386     1.838700    -0.958883     0.057727     0.072098     0.076706     0.120060     0.057435    -0.007084    -0.031337    -0.014990     0.034753    -0.066993     0.000003     0.066989
   48 O      2.697614     5.258179     1.838700    -0.958883    -0.072098     0.057728     0.076706     0.120060    -0.057435     0.031337    -0.007084     0.014990     0.034752    -0.066993     0.000003     0.066989
   49 O      5.258179     2.697614     8.798200    -0.958883     0.057727    -0.072099     0.076706     0.120060    -0.057435    -0.007084     0.031337    -0.014990     0.034753    -0.066993     0.000003     0.066989
   50 O      2.697614     3.415821     8.798200    -0.958883    -0.072099    -0.057727     0.076706     0.120060     0.057435     0.031337     0.007084     0.014990     0.034753    -0.066993     0.000003     0.066989
   51 O      3.415821     5.976386     8.798200    -0.958883    -0.057727     0.072098     0.076706     0.120060    -0.057435     0.007084    -0.031337    -0.014990     0.034753    -0.066993     0.000003     0.066989
   52 O      5.976386     5.258179     8.798200    -0.958883     0.072098     0.057728     0.076706     0.120060     0.057435    -0.031337    -0.007084     0.014990     0.034752    -0.066993     0.000003     0.066989
   53 O      5.258179     5.976386    12.080300    -0.958882     0.057727     0.072098    -0.076706     0.120060     0.057435     0.007084     0.031337    -0.014990     0.034753    -0.066993     0.000003     0.066989
   54 O      2.697614     5.258179    12.080300    -0.958882    -0.072098     0.057727    -0.076706     0.120060    -0.057435    -0.031337     0.007084     0.014990     0.034752    -0.066993     0.000003     0.066989
   55 O      3.415821     2.697614    12.080300    -0.958882    -0.057727    -0.072098    -0.076705     0.120060     0.057435    -0.007084    -0.031337    -0.014990     0.034752    -0.066993     0.000003     0.066989
   56 O      5.976386     3.415821    12.080300    -0.958882     0.072098    -0.057728    -0.076706     0.120060    -0.057435     0.031337    -0.007084     0.014990     0.034752    -0.066993     0.000003     0.066989
   57 O      3.415821     5.976386     5.120800    -0.958882    -0.057727     0.072098    -0.076706     0.120060    -0.057435    -0.007084     0.031337    -0.014990     0.034753    -0.066993     0.000003     0.066989
   58 O      5.976386     5.258179     5.120800    -0.958882     0.072098     0.057727    -0.076706     0.120060     0.057435     0.031337     0.007084     0.014990     0.034752    -0.066993     0.000003     0.066989
   59 O      5.258179     2.697614     5.120800    -0.958882     0.057727    -0.072098    -0.076705     0.120060    -0.057435     0.007084    -0.031337    -0.014990     0.034752    -0.066993     0.000003     0.066989
   60 O      2.697614     3.415821     5.120800    -0.958882    -0.072098    -0.057728    -0.076706     0.120060     0.057435    -0.031337    -0.007084     0.014990     0.034752    -0.066993     0.000003     0.066989
 
The sperically averaged electron density of each atom fit to a function of the form exp(a - br) for r >=rmin_cloud_penetration
atom number,atomic symbol, x, y, z, a, b, Rsquared where a and b are in atomic units and Rsquared is the squared correlation coefficient
    1 Si     2.197992     3.736759     1.550577    -0.510557     1.815781     0.999145
    2 Si     4.937241     2.197992     1.550577    -0.510555     1.815781     0.999145
    3 Si     6.476008     4.937241     1.550577    -0.510555     1.815781     0.999145
    4 Si     3.736759     6.476008     1.550577    -0.510553     1.815781     0.999145
    5 Si     6.476008     3.736759     8.510077    -0.510557     1.815781     0.999145
    6 Si     3.736759     2.197992     8.510077    -0.510555     1.815781     0.999145
    7 Si     2.197992     4.937241     8.510077    -0.510555     1.815781     0.999145
    8 Si     4.937241     6.476008     8.510077    -0.510553     1.815781     0.999145
    9 Si     6.476008     4.937241    12.368423    -0.510553     1.815781     0.999145
   10 Si     3.736759     6.476008    12.368423    -0.510552     1.815780     0.999145
   11 Si     2.197992     3.736759    12.368423    -0.510551     1.815780     0.999145
   12 Si     4.937241     2.197992    12.368423    -0.510550     1.815780     0.999145
   13 Si     2.197992     4.937241     5.408923    -0.510553     1.815781     0.999145
   14 Si     4.937241     6.476008     5.408923    -0.510552     1.815780     0.999145
   15 Si     6.476008     3.736759     5.408923    -0.510551     1.815780     0.999145
   16 Si     3.736759     2.197992     5.408923    -0.510550     1.815780     0.999145
   17 Si     0.000000     4.337000     3.479750    -0.461506     1.833226     0.998752
   18 Si     4.337000     0.000000     3.479750    -0.461508     1.833226     0.998752
   19 Si     0.000000     4.337000    10.439250    -0.461506     1.833226     0.998752
   20 Si     4.337000     0.000000    10.439250    -0.461508     1.833226     0.998752
   21 O      0.944599     5.268588     4.423458    -0.963658     1.813288     0.999839
   22 O      3.405412     0.944599     4.423458    -0.963659     1.813288     0.999839
   23 O      7.729401     3.405412     4.423458    -0.963659     1.813288     0.999839
   24 O      5.268588     7.729401     4.423458    -0.963658     1.813288     0.999839
   25 O      7.729401     5.268588    11.382958    -0.963658     1.813288     0.999839
   26 O      5.268588     0.944599    11.382958    -0.963659     1.813288     0.999839
   27 O      0.944599     3.405412    11.382958    -0.963659     1.813288     0.999839
   28 O      3.405412     7.729401    11.382958    -0.963658     1.813288     0.999839
   29 O      7.729401     3.405412     9.495542    -0.963657     1.813288     0.999839
   30 O      5.268588     7.729401     9.495542    -0.963658     1.813288     0.999839
   31 O      0.944599     5.268588     9.495542    -0.963658     1.813288     0.999839
   32 O      3.405412     0.944599     9.495542    -0.963657     1.813288     0.999839
   33 O      0.944599     3.405412     2.536042    -0.963657     1.813288     0.999839
   34 O      3.405412     7.729401     2.536042    -0.963658     1.813288     0.999839
   35 O      7.729401     5.268588     2.536042    -0.963658     1.813288     0.999839
   36 O      5.268588     0.944599     2.536042    -0.963657     1.813288     0.999839
   37 O      1.721789     3.604047     0.000000    -0.959291     1.800305     0.999867
   38 O      5.069953     1.721789     0.000000    -0.959292     1.800305     0.999867
   39 O      6.952211     5.069953     0.000000    -0.959291     1.800305     0.999867
   40 O      3.604047     6.952211     0.000000    -0.959292     1.800305     0.999867
   41 O      6.952211     3.604047     6.959500    -0.959291     1.800305     0.999867
   42 O      3.604047     1.721789     6.959500    -0.959292     1.800305     0.999867
   43 O      1.721789     5.069953     6.959500    -0.959291     1.800305     0.999867
   44 O      5.069953     6.952211     6.959500    -0.959292     1.800305     0.999867
   45 O      3.415821     2.697614     1.838700    -0.676045     1.813177     0.999923
   46 O      5.976386     3.415821     1.838700    -0.676045     1.813177     0.999923
   47 O      5.258179     5.976386     1.838700    -0.676046     1.813177     0.999923
   48 O      2.697614     5.258179     1.838700    -0.676045     1.813177     0.999923
   49 O      5.258179     2.697614     8.798200    -0.676045     1.813177     0.999923
   50 O      2.697614     3.415821     8.798200    -0.676045     1.813177     0.999923
   51 O      3.415821     5.976386     8.798200    -0.676046     1.813177     0.999923
   52 O      5.976386     5.258179     8.798200    -0.676045     1.813177     0.999923
   53 O      5.258179     5.976386    12.080300    -0.676046     1.813177     0.999923
   54 O      2.697614     5.258179    12.080300    -0.676047     1.813177     0.999923
   55 O      3.415821     2.697614    12.080300    -0.676047     1.813177     0.999923
   56 O      5.976386     3.415821    12.080300    -0.676047     1.813177     0.999923
   57 O      3.415821     5.976386     5.120800    -0.676046     1.813177     0.999923
   58 O      5.976386     5.258179     5.120800    -0.676047     1.813177     0.999923
   59 O      5.258179     2.697614     5.120800    -0.676047     1.813177     0.999923
   60 O      2.697614     3.415821     5.120800    -0.676047     1.813177     0.999923
 
 2023/05/10  00:22:08
